/*--------------------------------*- C++ -*----------------------------------*\
| =========                 |                                                 |
| \\      /  F ield         | OpenFOAM: The Open Source CFD Toolbox           |
|  \\    /   O peration     | Version:  2406                                  |
|   \\  /    A nd           | Website:  www.openfoam.com                      |
|    \\/     M anipulation  |                                                 |
\*---------------------------------------------------------------------------*/
FoamFile
{
    version     2.0;
    format      ascii;
    arch        "LSB;label=32;scalar=64";
    class       polyBoundaryMesh;
    location    "constant/polyMesh";
    object      boundary;
}
// * * * * * * * * * * * * * * * * * * * * * * * * * * * * * * * * * * * * * //

6
(
    inlet
    {
        type            patch;
        nFaces          67;
        startFace       64571;
    }
    topWall
    {
        type            symmetry;
        inGroups        1(symmetry);
        nFaces          486;
        startFace       64638;
    }
    jet
    {
        type            patch;
        nFaces          45;
        startFace       65124;
    }
    outlet
    {
        type            patch;
        nFaces          67;
        startFace       65169;
    }
    bottomWall
    {
        type            wall;
        inGroups        1(wall);
        nFaces          441;
        startFace       65236;
    }
    defaultFaces
    {
        type            empty;
        inGroups        1(empty);
        nFaces          65124;
        startFace       65677;
    }
)

// ************************************************************************* //
