/*--------------------------------*- C++ -*----------------------------------*\
| =========                 |                                                 |
| \\      /  F ield         | OpenFOAM: The Open Source CFD Toolbox           |
|  \\    /   O peration     | Version:  2406                                  |
|   \\  /    A nd           | Website:  www.openfoam.com                      |
|    \\/     M anipulation  |                                                 |
\*---------------------------------------------------------------------------*/
FoamFile
{
    version     2.0;
    format      ascii;
    arch        "LSB;label=32;scalar=64";
    class       dictionary;
    location    "system";
    object      createPatchDict;
}
// * * * * * * * * * * * * * * * * * * * * * * * * * * * * * * * * * * * * * //

pointSync false;
actions
(
    {
        name inlet;
        patchInfo
        {
            type patch;
            faces
            (
                (3 0 16 19)
            );
        }
    }
    {
        name topWall;
        patchInfo
        {
            type symmetry;
            faces
            (
                (33 3 19 35) 
                (2 33 35 18)
                (5 2 18 21)
                (7 5 21 23)
                (13 7 23 29)
                (15 13 29 31)
            );
        }
    }
    {
        name jet;
        patchInfo
        {
            type patch;
            faces
            (
                (4 6 22 20)
            );
        }
    }
    {
        name outlet;
        patchInfo
        {
            type patch;
            faces
            (
                (14 15 31 30)
            );
        };
    }
    // {
    //     name bottomWall;
    //     patchInfo
    //     {
    //         type wall;
    //         faces
    //         (
    //             (0 32 34 16)
    //             (32 1 17 34)
    //             (1 4 20 17)
    //             (6 12 28 22)
    //             (12 14 30 28)
    //         );
    //     }
    // }
    {
        name defaultFaces;
        patchInfo
        {   
            type empty;
            faces
            (
                (0 3 33 32)
                (32 33 2 1)
                (1 2 5 4)
                (4 5 7 6)
                (6 7 13 12)
                (12 13 15 14)
                //
                (16 34 35 19)
                (34 17 18 35)
                (17 20 21 18)
                (20 22 23 21)
                (22 28 29 23)
                (28 30 31 29)
            );
        }
    }
    {
        name forcesBottomWall;
        patchInfo
        {
            type wall;
        }
        constructFrom set;
        set integrationBottomWallFaceSet;
    }
    {
        name complementBottomWall;
        patchInfo
        {
            type wall;
        }
        constructFrom set;
        set bottomWallFaceSet;
    }
    mergePatchPairs();
)
